demo/texas7k/debug/Texas2k_136.m
%% Converted by AMS 1.0.9
%% Copyright (C) 2023-2025 Jinning Wang

%% AMS comes with ABSOLUTELY NO WARRANTY
%% Convert time: 06/25/2025 01:07:16 PM

function mpc = mpc_case
mpc.version = '2';

%% system MVA base
mpc.baseMVA = 100.0;

%% bus data
%% bus_i type Pd Qd Gs Bs area Vm Va baseKV zone Vmax Vmin
mpc.bus = [
    1001	1	26.75	5.808	0	0	0	0.96141	-6.2524	115	0	1.1	0.9;
    1002	1	19.842	4.308	0	0	0	1.0258	19.3578	115	0	1.1	0.9;
    1003	1	0	0	0	0	0	0.99349	1.2427	115	0	1.1	0.9;
    1004	2	0	0	0	0	0	0.99553	-6.9102	230	0	1.1	0.9;
    1005	1	0	0	0	0	0	0.99607	5.0242	115	0	1.1	0.9;
    1006	2	0	0	0	0	0	1	6.0476	13.8	0	1.1	0.9;
    1007	2	9.021	1.959	0	-4.07	0	1.03	24.835	115	0	1.1	0.9;
    1008	1	0	0	0	0	0	0.99389	9.2674	115	0	1.1	0.9;
    1009	2	0	0	0	0	0	1	12.4558	13.8	0	1.1	0.9;
    1010	1	0	0	0	3.24	0	1.03	19.163	115	0	1.1	0.9;
    1011	2	0	0	0	0	0	1.03023	20.8238	22	0	1.1	0.9;
    1012	1	3.842	0.834	0	9.5	0	0.98358	-5.1228	115	0	1.1	0.9;
    1013	1	35.01	7.601	0	0	0	0.99371	9.8259	115	0	1.1	0.9;
    1014	1	2.858	0.62	0	0	0	0.99419	10.3778	115	0	1.1	0.9;
    1015	1	9.666	2.099	0	0	0	1.03023	20.7254	115	0	1.1	0.9;
    1016	2	3.719	0.808	0	0	0	1	10.7544	115	0	1.1	0.9;
    1017	1	23.615	5.127	0	0	0	0.97323	-0.1231	115	0	1.1	0.9;
    1018	1	0.089	0.02	0	0	0	0.98562	1.4167	115	0	1.1	0.9;
    1019	1	79.522	17.265	0	142.98	0	0.97714	-3.8717	115	0	1.1	0.9;
    1020	1	0	0	0	76.73	0	0.9909	-0.0063	115	0	1.1	0.9;
    1021	2	0	0	0	0	0	1	3.1771	13.8	0	1.1	0.9;
    1022	2	0	0	0	0	0	0.99929	2.357	115	0	1.1	0.9;
    1023	2	0	0	0	0	0	1.01	10.386	13.8	0	1.1	0.9;
    1024	1	81.148	17.618	0	0	0	0.99043	2.705	115	0	1.1	0.9;
    1025	1	0	0	0	0	0	0.99263	1.5187	115	0	1.1	0.9;
    1026	2	0	0	0	0	0	1	10.7293	13.8	0	1.1	0.9;
    1027	2	129.508	28.118	0	75	0	0.99738	-3.7818	115	0	1.1	0.9;
    1028	2	3.781	0.821	0	0	0	1	-1.9311	115	0	1.1	0.9;
    1029	2	107.079	23.249	0	18.36	0	1	-1.9726	115	0	1.1	0.9;
    1030	2	2.035	0.442	0	0	0	1.00797	15.0757	115	0	1.1	0.9;
    1031	1	11.902	2.584	0	0	0	1.00575	17.0675	115	0	1.1	0.9;
    1032	2	0	0	0	0	0	0.9731	7.462	115	0	1.1	0.9;
    1033	2	0	0	0	50	0	0.97761	3.9952	230	0	1.1	0.9;
    1034	1	0	0	0	0	0	0.9992	7.5054	115	0	1.1	0.9;
    1035	2	0	0	0	0	0	1	10.6242	13.8	0	1.1	0.9;
    1036	2	16.193	3.516	0	0	0	0.98618	11.1036	115	0	1.1	0.9;
    1037	2	131.605	28.573	0	0	0	0.96731	-2.1829	115	0	1.1	0.9;
    1038	1	0	0	0	0	0	0.99546	12.425	115	0	1.1	0.9;
    1039	2	0	0	0	0	0	1	17.6063	22	0	1.1	0.9;
    1040	2	57.1	12.397	0	0	0	1	4.4595	115	0	1.1	0.9;
    1041	1	0	0	0	0	0	1.00174	6.6893	115	0	1.1	0.9;
    1042	2	0	0	0	0	0	1.00174	6.6893	13.8	0	1.1	0.9;
    1043	2	0	0	0	0	0	1	9.7623	13.8	0	1.1	0.9;
    1044	2	13.092	2.842	0	0	0	1	-6.5061	115	0	1.1	0.9;
    1045	1	126.874	27.546	0	0	0	0.96143	-5.6444	115	0	1.1	0.9;
    1046	2	14.261	3.096	0	0	0	1	5.0384	115	0	1.1	0.9;
    1047	1	0	0	0	0	0	0.99103	6.4129	115	0	1.1	0.9;
    1048	2	0	0	0	0	0	0.99103	6.4129	18	0	1.1	0.9;
    1049	2	0	0	0	0	0	0.99103	6.4129	18	0	1.1	0.9;
    1050	2	0	0	0	0	0	1	8.8321	18	0	1.1	0.9;
    1051	2	0	0	0	0	0	1	9.5355	18	0	1.1	0.9;
    1052	2	0	0	0	0	0	1	8.4151	18	0	1.1	0.9;
    1053	2	0	0	0	0	0	0.98405	2.0735	230	0	1.1	0.9;
    1054	1	16.339	3.547	0	0	0	1.00209	0.7189	115	0	1.1	0.9;
    1055	2	5.12	1.112	0	0	0	1	2.1752	115	0	1.1	0.9;
    1056	1	0	0	0	80	0	1.01579	-0.0491	115	0	1.1	0.9;
    1057	2	0	0	0	0	0	1.01579	-0.0491	18	0	1.1	0.9;
    1058	1	12.061	2.619	0	0	0	1.00173	7.2456	115	0	1.1	0.9;
    1059	2	0	0	0	0	0	1.00173	7.2456	22	0	1.1	0.9;
    1060	2	0	0	0	0	0	1.00173	7.2456	22	0	1.1	0.9;
    1061	2	0	0	0	0	0	1	3.8633	115	0	1.1	0.9;
    1062	2	0	0	0	0	0	1.01	6.0807	13.8	0	1.1	0.9;
    1063	2	0	0	0	0	0	1.01	6.7753	13.8	0	1.1	0.9;
    1064	1	150.825	32.747	0	0	0	0.95395	-7.2306	115	0	1.1	0.9;
    1065	1	0	0	0	0	0	1.00372	6.803	115	0	1.1	0.9;
    1066	2	0	0	0	0	0	1	13.9428	13.8	0	1.1	0.9;
    1067	1	130.721	28.382	0	0	0	0.99905	6.1852	115	0	1.1	0.9;
    1068	1	75.578	16.409	0	0	0	0.97456	7.6694	115	0	1.1	0.9;
    1069	1	0	0	0	0	0	1.00249	9.8782	115	0	1.1	0.9;
    1070	2	0	0	0	0	0	1.02616	14.2728	13.8	0	1.1	0.9;
    1071	1	117.738	25.563	0	0	0	0.96893	-5.2744	115	0	1.1	0.9;
    1072	2	0	0	0	0	0	1.01	-0.8566	18	0	1.1	0.9;
    1073	2	0	0	0	0	0	1.01	2.2501	18	0	1.1	0.9;
    1074	2	0	0	0	0	0	1.01	1.2607	18	0	1.1	0.9;
    1075	2	0	0	0	0	0	1.01	-0.0482	18	0	1.1	0.9;
    1076	2	0	0	0	0	0	0.96893	-5.2744	18	0	1.1	0.9;
    1077	2	0	0	0	0	0	0.96893	-5.2744	18	0	1.1	0.9;
    1078	2	0	0	0	0	0	1.01	-0.2823	18	0	1.1	0.9;
    1079	2	0	0	0	0	0	0.98248	-26.2182	500	0	1.1	0.9;
    1080	2	0	0	0	0	0	1.01	-0.0545	18	0	1.1	0.9;
    1081	2	0	0	0	140	0	0.97788	-0.9091	230	0	1.1	0.9;
    1082	2	0	0	0	0	0	1	12.6613	115	0	1.1	0.9;
    1083	2	51.419	11.164	0	0	0	1	15.431	115	0	1.1	0.9;
    1084	2	0	0	0	0	0	0.99685	-0.5324	115	0	1.1	0.9;
    1085	2	23.653	5.135	0	0	0	1	9.3934	115	0	1.1	0.9;
    1086	2	51.068	11.087	0	30	0	1.01333	8.8349	115	0	1.1	0.9;
    1087	1	1.17	0.254	0	50	0	1.00824	2.2109	115	0	1.1	0.9;
    1088	2	0	0	0	0	0	0.99945	11.7391	115	0	1.1	0.9;
    1089	2	51.199	11.116	0	0	0	1	5.0703	115	0	1.1	0.9;
    1090	2	0	0	0	0	0	1.00427	4.8552	115	0	1.1	0.9;
    1091	1	8.893	1.931	0	0	0	0.97739	-1.6614	161	0	1.1	0.9;
    2001	1	43.831	9.516	0	0	1	1.00104	-56.9701	161	0	1.1	0.9;
    2002	1	0	0	0	0	1	1.0121	-57.7576	500	0	1.1	0.9;
    2003	1	0	0	0	0	1	1.01076	-60.0482	161	0	1.1	0.9;
    2004	2	0	0	0	0	1	1.0121	-57.7576	13.8	0	1.1	0.9;
    2005	2	0	0	0	0	1	1.0121	-57.7576	13.8	0	1.1	0.9;
    2006	2	0	0	0	0	1	1.0121	-57.7576	13.8	0	1.1	0.9;
    2007	1	12.281	2.666	0	0	1	1.00305	-56.2947	161	0	1.1	0.9;
    2008	2	10.377	2.253	0	0	1	1.00299	6.3479	161	0	1.1	0.9;
    2009	1	50.377	10.937	0	120	1	0.99238	-25.4762	161	0	1.1	0.9;
    2010	2	50.169	10.892	0	7.35	1	1	-3.4038	161	0	1.1	0.9;
    2011	2	0	0	0	0	1	1.01528	-7.5896	500	0	1.1	0.9;
    2012	2	0	0	0	0	1	0.99469	-1.0602	161	0	1.1	0.9;
    2013	2	0	0	0	0	1	1.0045	-5.127	18	0	1.1	0.9;
    2014	1	28.067	6.094	0	0	1	0.9965	6.321	161	0	1.1	0.9;
    2015	1	6.032	1.31	0	0	1	0.99305	-52.1907	161	0	1.1	0.9;
    2016	2	89.164	19.359	0	0	1	1.00777	-67.3404	161	0	1.1	0.9;
    2017	1	0	0	0	-15.92	1	1.03	-12.2291	500	0	1.1	0.9;
    2018	1	0	0	0	0	1	1.00582	-8.5457	161	0	1.1	0.9;
    2019	2	0	0	0	0	1	1.03	-12.2291	20	0	1.1	0.9;
    2020	1	61.754	13.407	0	0	1	0.97339	-31.2782	161	0	1.1	0.9;
    2021	1	0	0	0	0	1	1.01497	-53.0793	500	0	1.1	0.9;
    2022	1	14.887	3.232	0	0	1	1.01061	-55.3163	161	0	1.1	0.9;
    2023	2	0	0	0	0	1	1.02	-51.5953	13.8	0	1.1	0.9;
    2024	2	0	0	0	0	1	1.02	-50.9638	13.8	0	1.1	0.9;
    2025	1	50.998	11.072	0	0	1	0.9707	-31.2705	161	0	1.1	0.9;
    2026	1	10.218	2.218	0	0	1	0.99594	-6.3692	161	0	1.1	0.9;
    2027	1	4.576	0.993	0	0	1	1.00142	-57.4206	161	0	1.1	0.9;
    2028	1	18.328	3.979	0	0	1	0.98129	-32.2631	161	0	1.1	0.9;
    2029	2	4.12	0.895	0	0	1	1	7.7598	161	0	1.1	0.9;
    2030	1	55.652	12.082	0	0	1	0.98874	-61.0365	161	0	1.1	0.9;
    2031	1	4.773	1.037	0	0	1	1.00049	-1.4445	161	0	1.1	0.9;
    2032	1	4.317	0.937	0	0	1	1.00519	-55.6045	161	0	1.1	0.9;
    2033	1	15.794	3.43	0	0	1	0.99262	-62.4674	161	0	1.1	0.9;
    2034	1	6.874	1.492	0	0	1	1.00479	-66.6602	161	0	1.1	0.9;
    2035	2	0.688	0.149	0	0	1	1	4.4661	161	0	1.1	0.9;
    2036	1	53.532	11.623	0	0	1	0.97696	-29.2875	161	0	1.1	0.9;
    2037	1	3.618	0.785	0	0	1	1.00286	-52.178	161	0	1.1	0.9;
    2038	1	3.352	0.728	0	0	1	1.0098	-60.107	161	0	1.1	0.9;
    2039	1	7.155	1.554	0	0	1	0.98227	-49.8831	161	0	1.1	0.9;
    2040	1	20.471	4.445	0	0	1	1.00736	-56.0297	161	0	1.1	0.9;
    2041	2	0	0	0	0	1	1	3.1886	161	0	1.1	0.9;
    2042	2	0	0	0	0	1	1.01	5.9845	18	0	1.1	0.9;
    2043	1	5.453	1.184	0	0	1	1.00585	-66.9782	161	0	1.1	0.9;
    2044	1	35.278	7.659	0	0	1	0.99889	-57.1989	161	0	1.1	0.9;
    2045	1	29.099	6.318	0	0	1	0.97448	-31.5556	161	0	1.1	0.9;
    2046	1	28.492	6.186	0	0	1	1.00413	-66.2438	161	0	1.1	0.9;
    2047	1	7.141	1.551	0	0	1	1.0087	-61.1643	161	0	1.1	0.9;
    2048	2	8.26	1.793	0	0	1	1	0.3295	161	0	1.1	0.9;
    2049	2	13.524	2.937	0	0	1	1	-17.1808	161	0	1.1	0.9;
    2050	1	4.707	1.022	0	0	1	0.99341	-60.4274	161	0	1.1	0.9;
    2051	2	22.977	4.988	0	0	1	1	-40.5442	161	0	1.1	0.9;
    2052	1	19.795	4.298	0	0	1	0.99238	2.0101	161	0	1.1	0.9;
    2053	1	37.502	8.142	0	0	1	0.98459	-50.9484	161	0	1.1	0.9;
    2054	1	0	0	0	0	1	0.97478	-31.0196	500	0	1.1	0.9;
    2055	1	63.874	13.868	0	0	1	0.97339	-30.6372	161	0	1.1	0.9;
    2056	2	0	0	0	0	1	0.97478	-31.0196	18	0	1.1	0.9;
    2057	2	0	0	0	0	1	0.99	-27.9311	18	0	1.1	0.9;
    2058	1	0	0	0	0	1	0.99988	2.02	161	0	1.1	0.9;
    2059	2	0	0	0	0	1	1	5.3109	13.8	0	1.1	0.9;
    2060	1	4.885	1.06	0	0	1	0.99739	-58.943	161	0	1.1	0.9;
    2061	1	0	0	0	0	1	0.99966	-11.7244	161	0	1.1	0.9;
    2062	2	0	0	0	0	1	1.01213	-9.5145	18	0	1.1	0.9;
    2063	1	84.465	18.338	0	40	1	1.00523	-65.5018	161	0	1.1	0.9;
    2064	1	3.874	0.841	0	0	1	1.00325	-57.1293	161	0	1.1	0.9;
    2065	2	100.87	21.9	0	2.39	1	1	-54.3833	161	0	1.1	0.9;
    2066	1	0.672	0.146	0	0	1	0.98516	-2.5693	161	0	1.1	0.9;
    2067	1	69.47	15.083	0	0	1	0.97028	-31.7319	161	0	1.1	0.9;
    2068	1	7.415	1.61	0	0	1	0.98566	-31.2594	161	0	1.1	0.9;
    2069	1	28.222	6.128	0	120	1	1.02399	-66.2717	161	0	1.1	0.9;
    2070	1	0	0	0	0	1	0.98946	-31.3692	161	0	1.1	0.9;
    2071	2	0	0	0	0	1	1	-27.8583	18	0	1.1	0.9;
    2072	1	12.493	2.713	0	0	1	1.01587	-63.9099	161	0	1.1	0.9;
    2073	1	0	0	0	0	1	0.98261	-7.8885	161	0	1.1	0.9;
    2074	1	0	0	0	0	1	0.99072	-5.68	115	0	1.1	0.9;
    2075	1	0	0	0	0	1	0.99072	-5.68	115	0	1.1	0.9;
    2076	2	0	0	0	0	1	0.98801	-6.9719	24	0	1.1	0.9;
    2077	1	0	0	0	0	1	1.01049	-49.1741	161	0	1.1	0.9;
    2078	2	0	0	0	0	1	1.02	-46.0148	13.8	0	1.1	0.9;
    2079	1	5.766	1.252	0	0	1	1.00086	-2.0699	161	0	1.1	0.9;
    2080	1	21.796	4.732	0	0	1	0.99675	-43.3769	161	0	1.1	0.9;
    2081	2	5.747	1.248	0	0	1	1.008	-60.1405	161	0	1.1	0.9;
    2082	1	75.988	16.498	0	0	1	0.98073	-28.2117	161	0	1.1	0.9;
    2083	2	0	0	0	0	1	0.99575	-26.6446	20	0	1.1	0.9;
    2084	2	0	0	0	0	1	0.98073	-28.2117	20	0	1.1	0.9;
    2085	2	0	0	0	0	1	0.98073	-28.2117	20	0	1.1	0.9;
    2086	1	2.823	0.613	0	0	1	0.98657	-47.3849	161	0	1.1	0.9;
    2087	2	10.164	2.207	0	0	1	1	-2.5688	161	0	1.1	0.9;
    2088	1	0	0	0	0	1	0.98786	-31.1618	161	0	1.1	0.9;
    2089	2	0	0	0	0	1	1	-27.7209	24	0	1.1	0.9;
    2090	1	3.12	0.678	0	0	1	1.00178	-58.0332	161	0	1.1	0.9;
    2091	2	21.943	4.764	0	0	1	1	1.7069	161	0	1.1	0.9;
    2092	1	31.033	6.738	0	0	1	1.00507	-63.4335	161	0	1.1	0.9;
    2093	2	0	0	0	0	1	1	-4.3957	161	0	1.1	0.9;
    2094	2	0	0	0	0	1	1	-3.7752	13.8	0	1.1	0.9;
    2095	2	0	0	0	0	1	1	-4.0893	13.8	0	1.1	0.9;
    2096	1	0	0	0	0	1	1.00758	-13.1306	500	0	1.1	0.9;
    2097	1	0	0	0	0	1	1.00074	-11.5557	230	0	1.1	0.9;
    2098	1	0	0	0	0	1	0.97466	-3.061	161	0	1.1	0.9;
    2099	2	0	0	0	0	1	1.00833	-12.9917	18	0	1.1	0.9;
    2100	2	0	0	0	0	1	1.02	-10.6259	18	0	1.1	0.9;
    2101	1	0	0	0	0	1	1.0114	-58.8002	500	0	1.1	0.9;
    2102	1	0	0	0	0	1	1.00868	-59.9519	161	0	1.1	0.9;
    2103	2	0	0	0	0	1	1.0114	-58.8002	20	0	1.1	0.9;
    2104	2	0	0	0	0	1	1.0114	-58.8002	20	0	1.1	0.9;
    2105	2	0	0	0	0	1	1.0114	-58.8002	20	0	1.1	0.9;
    2106	1	18.54	4.026	0	0	1	0.99122	-63.1471	161	0	1.1	0.9;
    2107	1	95.451	20.723	0	0	1	1.00323	-60.9194	161	0	1.1	0.9;
    2108	1	2.761	0.6	0	0	1	0.99765	-17.4677	161	0	1.1	0.9;
    2109	2	43.522	9.449	0	0	1	1	-27.8827	161	0	1.1	0.9;
...
];

%% generator data
%% bus Pg Qg Qmax Qmin Vg mBase status Pmax Pmin
%% Pc1 Pc2 Qc1min Qc1max Qc2min Qc2max ramp_agc ramp_10 ramp_30 ramp_q apf
mpc.gen = [
    7389	2510.65	-48.884	276.29	-60.25	1.02	651.36	1	542.8	162.84	0	0	0	0	0	0	5.994e+06	99900	99900	5.994e+06	0;
    1004	104.956	44.94	44.94	-30.38	1.01	253.2	1	211	63.3	0	0	0	0	0	0	5.994e+06	99900	99900	5.994e+06	0;
    1006	17.0646	4.556	7.31	-4.94	1	41.16	1	34.3	10.29	0	0	0	0	0	0	5.994e+06	99900	99900	5.994e+06	0;
    1007	143.651	0	0	0	1	601.65	1	481.32	0	0	0	0	0	0	0	5.994e+06	99900	99900	5.994e+06	0;
    1009	41.034	5.261	17.57	-11.88	1	99	1	82.5	24.75	0	0	0	0	0	0	5.994e+06	99900	99900	5.994e+06	0;
    1011	6.6325	0	0	0	1	12	1	10	3	0	0	0	0	0	0	5.994e+06	99900	99900	5.994e+06	0;
    1016	291.468	-45.367	381.179	-381.179	1	1220.75	1	976.6	0	0	0	0	0	0	0	5.994e+06	99900	99900	5.994e+06	0;
    1016	89.5356	-13.936	117.094	-117.094	1	375	1	300	0	0	0	0	0	0	0	5.994e+06	99900	99900	5.994e+06	0;
    1021	99.239	21.288	42.49	-28.73	1	239.4	1	199.5	59.85	0	0	0	0	0	0	5.994e+06	99900	99900	5.994e+06	0;
    1022	79.4479	0	0	0	1	332.75	1	266.2	0	0	0	0	0	0	0	5.994e+06	99900	99900	5.994e+06	0;
    1023	89.5356	24.287	38.34	-25.92	1.01	216	1	180	54	0	0	0	0	0	0	5.994e+06	99900	99900	5.994e+06	0;
    1023	79.4479	0	0	0	1.01	332.75	1	266.2	0	0	0	0	0	0	0	5.994e+06	99900	99900	5.994e+06	0;
    1026	61.7799	9.119	26.45	-17.88	1	149.04	1	124.2	37.26	0	0	0	0	0	0	5.994e+06	99900	99900	5.994e+06	0;
    1027	1.0745	1.405	1.405	-1.405	1	4.5	1	3.6	0	0	0	0	0	0	0	5.994e+06	99900	99900	5.994e+06	0;
    1028	168.298	17.148	220.097	-220.097	1	704.875	1	563.9	0	0	0	0	0	0	0	5.994e+06	99900	99900	5.994e+06	0;
    1029	41.8726	18.359	54.761	-54.761	1	175.375	1	140.3	0	0	0	0	0	0	0	5.994e+06	99900	99900	5.994e+06	0;
    1030	14.9226	0	0	0	1	62.5	1	50	0	0	0	0	0	0	0	5.994e+06	99900	99900	5.994e+06	0;
    1032	138.706	0	0	0	1	580.938	1	464.75	0	0	0	0	0	0	0	5.994e+06	99900	99900	5.994e+06	0;
    1033	138.283	59.21	59.21	-40.03	1	333.6	1	278	83.4	0	0	0	0	0	0	5.994e+06	99900	99900	5.994e+06	0;
    1033	138.706	0	0	0	1	580.938	1	464.75	0	0	0	0	0	0	0	5.994e+06	99900	99900	5.994e+06	0;
    1035	44.7678	-0.617	19.17	-12.96	1	108	1	90	27	0	0	0	0	0	0	5.994e+06	99900	99900	5.994e+06	0;
    1036	78.1942	0	0	0	1	327.5	1	262	0	0	0	0	0	0	0	5.994e+06	99900	99900	5.994e+06	0;
    1037	53.7215	0	0	0	1	225	1	180	0	0	0	0	0	0	0	5.994e+06	99900	99900	5.994e+06	0;
    1039	73.3726	7.568	31.42	-21.24	1	177	1	147.5	44.25	0	0	0	0	0	0	5.994e+06	99900	99900	5.994e+06	0;
    1040	47.9612	-5.832	62.723	-62.723	1	200.875	1	160.7	0	0	0	0	0	0	0	5.994e+06	99900	99900	5.994e+06	0;
    1040	323.492	0	0	0	1	1354.88	1	1083.9	0	0	0	0	0	0	0	5.994e+06	99900	99900	5.994e+06	0;
    1042	0	0	25.96	-17.55	1	146.28	0	121.9	36.57	0	0	0	0	0	0	5.994e+06	99900	99900	5.994e+06	0;
    1043	29.2481	-1.21	12.52	-8.47	1	70.56	1	58.8	17.64	0	0	0	0	0	0	5.994e+06	99900	99900	5.994e+06	0;
    1044	90.2517	26.66	118.03	-118.03	1	378	1	302.4	0	0	0	0	0	0	0	5.994e+06	99900	99900	5.994e+06	0;
    1046	454.99	-30.31	595.031	-595.031	1	1905.62	1	1524.5	0	0	0	0	0	0	0	5.994e+06	99900	99900	5.994e+06	0;
    1048	0	0	165.53	-36.1	1	390.24	0	325.2	97.56	0	0	0	0	0	0	5.994e+06	99900	99900	5.994e+06	0;
    1049	0	0	165.53	-36.1	1	390.24	0	325.2	97.56	0	0	0	0	0	0	5.994e+06	99900	99900	5.994e+06	0;
    1050	59.2928	17.147	45.5	-9.92	1	107.28	1	89.4	26.82	0	0	0	0	0	0	5.994e+06	99900	99900	5.994e+06	0;
    1051	59.2928	12.572	45.5	-9.92	1	107.28	1	89.4	26.82	0	0	0	0	0	0	5.994e+06	99900	99900	5.994e+06	0;
    1052	59.2928	19.399	45.5	-9.92	1	107.28	1	89.4	26.82	0	0	0	0	0	0	5.994e+06	99900	99900	5.994e+06	0;
    1053	0	0	91.01	-19.85	1	214.56	0	178.8	53.64	0	0	0	0	0	0	5.994e+06	99900	99900	5.994e+06	0;
    1055	73.8374	28.574	96.563	-96.563	1	309.25	1	247.4	0	0	0	0	0	0	0	5.994e+06	99900	99900	5.994e+06	0;
    1057	0	0	25.56	-17.28	1	144	0	120	36	0	0	0	0	0	0	5.994e+06	99900	99900	5.994e+06	0;
    1059	0	0	2.85	-0.62	1.04	6.72	0	5.6	1.68	0	0	0	0	0	0	5.994e+06	99900	99900	5.994e+06	0;
    1060	0	0	1.02	-0.22	1.04	2.4	0	2	0.6	0	0	0	0	0	0	5.994e+06	99900	99900	5.994e+06	0;
    1061	34.8201	-0.027	45.536	-45.536	1	145.833	1	116.667	0	0	0	0	0	0	0	5.994e+06	99900	99900	5.994e+06	0;
    1062	0	0	0	0	1.01	1.8	0	1.5	0.45	0	0	0	0	0	0	5.994e+06	99900	99900	5.994e+06	0;
    1062	34.8201	11.11	45.536	-45.536	1.01	145.833	1	116.667	0	0	0	0	0	0	0	5.994e+06	99900	99900	5.994e+06	0;
    1063	0	0	0	0	1.01	276	0	230	69	0	0	0	0	0	0	5.994e+06	99900	99900	5.994e+06	0;
    1063	34.8201	8.246	45.536	-45.536	1.01	145.833	1	116.667	0	0	0	0	0	0	0	5.994e+06	99900	99900	5.994e+06	0;
    1066	70.8855	-0.875	30.35	-20.52	1	171	1	142.5	42.75	0	0	0	0	0	0	5.994e+06	99900	99900	5.994e+06	0;
    1070	79.8392	34.19	34.19	-23.11	1.04	192.6	1	160.5	48.15	0	0	0	0	0	0	5.994e+06	99900	99900	5.994e+06	0;
    1072	127.426	92.562	97.8	-21.33	1.01	230.56	1	192.13	57.64	0	0	0	0	0	0	5.994e+06	99900	99900	5.994e+06	0;
    1073	127.426	63.655	97.8	-21.33	1.01	230.56	1	192.13	57.64	0	0	0	0	0	0	5.994e+06	99900	99900	5.994e+06	0;
    1074	127.426	68.429	97.8	-21.33	1.01	230.56	1	192.13	57.64	0	0	0	0	0	0	5.994e+06	99900	99900	5.994e+06	0;
    1075	127.426	84.59	97.8	-21.33	1.01	230.56	1	192.13	57.64	0	0	0	0	0	0	5.994e+06	99900	99900	5.994e+06	0;
    1076	0	0	97.8	-21.33	1.01	230.56	0	192.13	57.64	0	0	0	0	0	0	5.994e+06	99900	99900	5.994e+06	0;
    1077	0	0	97.8	-21.33	1.01	230.56	0	192.13	57.64	0	0	0	0	0	0	5.994e+06	99900	99900	5.994e+06	0;
    1078	63.3381	44.83	48.61	-10.6	1.01	114.6	1	95.5	28.65	0	0	0	0	0	0	5.994e+06	99900	99900	5.994e+06	0;
    1079	63.3381	48.61	48.61	-10.6	1.01	114.6	1	95.5	28.65	0	0	0	0	0	0	5.994e+06	99900	99900	5.994e+06	0;
    1080	63.3381	39.672	48.61	-10.6	1.01	114.6	1	95.5	28.65	0	0	0	0	0	0	5.994e+06	99900	99900	5.994e+06	0;
    1081	0	0	145.83	-31.8	1.01	343.8	0	286.5	85.95	0	0	0	0	0	0	5.994e+06	99900	99900	5.994e+06	0;
    1082	74.613	-19.271	31.95	-21.6	1	180	1	150	45	0	0	0	0	0	0	5.994e+06	99900	99900	5.994e+06	0;
    1083	57.2131	-61.43	74.823	-74.823	1	239.625	1	191.7	0	0	0	0	0	0	0	5.994e+06	99900	99900	5.994e+06	0;
    1083	476.225	0	0	0	1	1994.56	1	1595.65	0	0	0	0	0	0	0	5.994e+06	99900	99900	5.994e+06	0;
    1084	57.449	24.6	24.6	-16.63	1.04	138.6	1	115.5	34.65	0	0	0	0	0	0	5.994e+06	99900	99900	5.994e+06	0;
    1085	45.5441	-12.227	59.562	-59.562	1	190.75	1	152.6	0	0	0	0	0	0	0	5.994e+06	99900	99900	5.994e+06	0;
    1085	75.5055	0	0	0	1	316.237	1	252.99	0	0	0	0	0	0	0	5.994e+06	99900	99900	5.994e+06	0;
    1086	29.8452	0	0	0	1	125	1	100	0	0	0	0	0	0	0	5.994e+06	99900	99900	5.994e+06	0;
    1088	37.3065	15.97	15.97	-10.8	1	90	1	75	22.5	0	0	0	0	0	0	5.994e+06	99900	99900	5.994e+06	0;
    1089	63.0329	-31.072	82.434	-82.434	1	264	1	211.2	0	0	0	0	0	0	0	5.994e+06	99900	99900	5.994e+06	0;
    1089	45.2452	0	0	0	1	189.5	1	151.6	0	0	0	0	0	0	0	5.994e+06	99900	99900	5.994e+06	0;
    1090	75.8534	32.48	32.48	-21.96	1.02	183	1	152.5	45.75	0	0	0	0	0	0	5.994e+06	99900	99900	5.994e+06	0;
    1090	17.9074	7.67	7.67	-5.18	1.02	43.2	1	36	10.8	0	0	0	0	0	0	5.994e+06	99900	99900	5.994e+06	0;
    2004	0	0	199.43	-43.49	1.02	470.16	0	391.8	117.54	0	0	0	0	0	0	5.994e+06	99900	99900	5.994e+06	0;
    2005	0	0	199.43	-43.49	1.02	470.16	0	391.8	117.54	0	0	0	0	0	0	5.994e+06	99900	99900	5.994e+06	0;
    2006	0	0	199.43	-43.49	1.02	470.16	0	391.8	117.54	0	0	0	0	0	0	5.994e+06	99900	99900	5.994e+06	0;
    2008	71.6282	0	0	0	1	300	1	240	0	0	0	0	0	0	0	5.994e+06	99900	99900	5.994e+06	0;
    2010	104.548	7.346	136.726	-136.726	1	437.875	1	350.3	0	0	0	0	0	0	0	5.994e+06	99900	99900	5.994e+06	0;
    2011	5.7211	-7.481	7.481	-7.481	1	23.958	1	19.167	0	0	0	0	0	0	0	5.994e+06	99900	99900	5.994e+06	0;
    2012	5.7211	7.481	7.481	7.481	1	23.958	1	19.167	0	0	0	0	0	0	0	5.994e+06	99900	99900	5.994e+06	0;
    2013	99.7822	-28.89	42.73	-28.89	1	240.72	1	200.6	60.18	0	0	0	0	0	0	5.994e+06	99900	99900	5.994e+06	0;
    2013	5.7211	-7.481	7.481	-7.481	1	23.958	1	19.167	0	0	0	0	0	0	0	5.994e+06	99900	99900	5.994e+06	0;
    2016	6.0585	0	0	0	1	25.375	1	20.3	0	0	0	0	0	0	0	5.994e+06	99900	99900	5.994e+06	0;
    2019	0	0	46.43	-31.39	1.04	261.6	0	218	65.4	0	0	0	0	0	0	5.994e+06	99900	99900	5.994e+06	0;
    2023	55.2664	14.826	42.42	-9.25	1.02	100	1	83.33	25	0	0	0	0	0	0	5.994e+06	99900	99900	5.994e+06	0;
    2024	110.54	21.715	84.83	-18.5	1.02	200	1	166.67	50	0	0	0	0	0	0	5.994e+06	99900	99900	5.994e+06	0;
    2029	44.7377	-4.513	58.508	-58.508	1	187.375	1	149.9	0	0	0	0	0	0	0	5.994e+06	99900	99900	5.994e+06	0;
    2029	287.022	-28.955	375.363	-375.363	1	1202.12	1	961.7	0	0	0	0	0	0	0	5.994e+06	99900	99900	5.994e+06	0;
    2029	149.823	0	0	0	1	627.5	1	502	0	0	0	0	0	0	0	5.994e+06	99900	99900	5.994e+06	0;
    2035	240.075	-8.496	313.967	-313.967	1	1005.5	1	804.4	0	0	0	0	0	0	0	5.994e+06	99900	99900	5.994e+06	0;
    2041	62.6899	-44.184	81.985	-81.985	1	262.563	1	210.05	0	0	0	0	0	0	0	5.994e+06	99900	99900	5.994e+06	0;
    2041	84.3276	-59.434	110.283	-110.283	1	353.188	1	282.55	0	0	0	0	0	0	0	5.994e+06	99900	99900	5.994e+06	0;
    2041	34.3819	-24.232	44.964	-44.964	1	144	1	115.2	0	0	0	0	0	0	0	5.994e+06	99900	99900	5.994e+06	0;
    2042	39.5948	11.347	16.95	-11.46	1.01	95.52	1	79.6	23.88	0	0	0	0	0	0	5.994e+06	99900	99900	5.994e+06	0;
    2042	62.6899	17.966	81.985	-81.985	1.01	262.563	1	210.05	0	0	0	0	0	0	0	5.994e+06	99900	99900	5.994e+06	0;
    2042	84.3276	24.167	110.283	-110.283	1.01	353.188	1	282.55	0	0	0	0	0	0	0	5.994e+06	99900	99900	5.994e+06	0;
    2042	34.3819	9.853	44.964	-44.964	1.01	144	1	115.2	0	0	0	0	0	0	0	5.994e+06	99900	99900	5.994e+06	0;
    2048	73.8073	-3.979	96.524	-96.524	1	309.125	1	247.3	0	0	0	0	0	0	0	5.994e+06	99900	99900	5.994e+06	0;
    2049	325.283	35.209	425.401	-425.401	1	1362.38	1	1089.9	0	0	0	0	0	0	0	5.994e+06	99900	99900	5.994e+06	0;
    2051	60.914	53.49	79.663	-79.663	1	255.125	1	204.1	0	0	0	0	0	0	0	5.994e+06	99900	99900	5.994e+06	0;
    2056	0	0	2.8	-0.73	0.99	7.2	0	6	1.8	0	0	0	0	0	0	5.994e+06	99900	99900	5.994e+06	0;
    2057	277.073	117.155	335.52	-87.84	0.99	864	1	720	216	0	0	0	0	0	0	5.994e+06	99900	99900	5.994e+06	0;
    2059	39.7936	-1.277	17.04	-11.52	1	96	1	80	24	0	0	0	0	0	0	5.994e+06	99900	99900	5.994e+06	0;
    2062	67.3505	28.84	28.84	-19.5	1.02	162.48	1	135.4	40.62	0	0	0	0	0	0	5.994e+06	99900	99900	5.994e+06	0;
    2065	93.9232	2.393	122.831	-122.831	1	393.375	1	314.7	0	0	0	0	0	0	0	5.994e+06	99900	99900	5.994e+06	0;
    2065	19.3991	0	0	0	1	81.25	1	65	0	0	0	0	0	0	0	5.994e+06	99900	99900	5.994e+06	0;
    2071	74.613	19.311	31.95	-21.6	1	180	1	150	45	0	0	0	0	0	0	5.994e+06	99900	99900	5.994e+06	0;
    2076	14.9226	6.39	6.39	-4.32	1.04	36	1	30	9	0	0	0	0	0	0	5.994e+06	99900	99900	5.994e+06	0;
    2078	55.9629	13.544	23.96	-16.2	1.02	135	1	112.5	33.75	0	0	0	0	0	0	5.994e+06	99900	99900	5.994e+06	0;
    2081	65.5403	0	0	0	1	274.5	1	219.6	0	0	0	0	0	0	0	5.994e+06	99900	99900	5.994e+06	0;
    2083	13.2643	10.18	10.18	-2.22	1.02	24	1	20	6	0	0	0	0	0	0	5.994e+06	99900	99900	5.994e+06	0;
    2084	0	0	10.18	-2.22	1.02	24	0	20	6	0	0	0	0	0	0	5.994e+06	99900	99900	5.994e+06	0;
    2085	0	0	20.36	-4.44	1.02	48	0	40	12	0	0	0	0	0	0	5.994e+06	99900	99900	5.994e+06	0;
    2087	8.9537	2.551	11.709	-11.709	1	37.5	1	30	0	0	0	0	0	0	0	5.994e+06	99900	99900	5.994e+06	0;
    2087	136.058	0	0	0	1	569.85	1	455.88	0	0	0	0	0	0	0	5.994e+06	99900	99900	5.994e+06	0;
    2089	33.6259	10.227	14.4	-9.73	1	81.12	1	67.6	20.28	0	0	0	0	0	0	5.994e+06	99900	99900	5.994e+06	0;
    2091	98.5488	-25.114	128.881	-128.881	1	412.75	1	330.2	0	0	0	0	0	0	0	5.994e+06	99900	99900	5.994e+06	0;
    2093	7.3325	7.316	9.589	-9.589	1	30.708	1	24.567	0	0	0	0	0	0	0	5.994e+06	99900	99900	5.994e+06	0;
    2094	0	0	2.13	-1.44	1	12	0	10	3	0	0	0	0	0	0	5.994e+06	99900	99900	5.994e+06	0;
    2094	7.3325	-0.116	9.589	-9.589	1	30.708	1	24.567	0	0	0	0	0	0	0	5.994e+06	99900	99900	5.994e+06	0;
    2095	0	0	16.93	-11.45	1	95.4	0	79.5	23.85	0	0	0	0	0	0	5.994e+06	99900	99900	5.994e+06	0;
    2095	7.3325	-0.278	9.589	-9.589	1	30.708	1	24.567	0	0	0	0	0	0	0	5.994e+06	99900	99900	5.994e+06	0;
    2099	4.9742	2.13	2.13	-1.44	1.02	12	1	10	3	0	0	0	0	0	0	5.994e+06	99900	99900	5.994e+06	0;
    2100	74.613	30.345	31.95	-21.6	1.02	180	1	150	45	0	0	0	0	0	0	5.994e+06	99900	99900	5.994e+06	0;
    2103	0	0	136.28	-29.72	1	321.28	0	267.73	80.32	0	0	0	0	0	0	5.994e+06	99900	99900	5.994e+06	0;
    2104	0	0	136.28	-29.72	1	321.28	0	267.73	80.32	0	0	0	0	0	0	5.994e+06	99900	99900	5.994e+06	0;
    2105	0	0	136.28	-29.72	1	321.28	0	267.73	80.32	0	0	0	0	0	0	5.994e+06	99900	99900	5.994e+06	0;
    2109	62.7347	73.435	82.044	-82.044	1	262.75	1	210.2	0	0	0	0	0	0	0	5.994e+06	99900	99900	5.994e+06	0;
    2113	47.3879	0	0	0	1	198.478	1	158.782	0	0	0	0	0	0	0	5.994e+06	99900	99900	5.994e+06	0;
    2114	47.3879	0	0	0	1	198.478	1	158.782	0	0	0	0	0	0	0	5.994e+06	99900	99900	5.994e+06	0;
    2115	122.511	-20.5	94.02	-20.5	1	221.66	1	184.72	55.41	0	0	0	0	0	0	5.994e+06	99900	99900	5.994e+06	0;
    2115	47.3879	0	0	0	1	198.478	1	158.782	0	0	0	0	0	0	0	5.994e+06	99900	99900	5.994e+06	0;
    2116	122.511	-20.5	94.02	-20.5	1	221.66	1	184.72	55.41	0	0	0	0	0	0	5.994e+06	99900	99900	5.994e+06	0;
    2116	47.3879	0	0	0	1	198.478	1	158.782	0	0	0	0	0	0	0	5.994e+06	99900	99900	5.994e+06	0;
    2117	122.511	-20.5	94.02	-20.5	1	221.66	1	184.72	55.41	0	0	0	0	0	0	5.994e+06	99900	99900	5.994e+06	0;
    2117	47.3879	0	0	0	1	198.478	1	158.782	0	0	0	0	0	0	0	5.994e+06	99900	99900	5.994e+06	0;
    2118	122.511	-19.26	94.02	-20.5	1	221.66	1	184.72	55.41	0	0	0	0	0	0	5.994e+06	99900	99900	5.994e+06	0;
    2118	47.3879	0	0	0	1	198.478	1	158.782	0	0	0	0	0	0	0	5.994e+06	99900	99900	5.994e+06	0;
    2119	122.511	-20.5	94.02	-20.5	1	221.66	1	184.72	55.41	0	0	0	0	0	0	5.994e+06	99900	99900	5.994e+06	0;
    2119	47.3879	0	0	0	1	198.478	1	158.782	0	0	0	0	0	0	0	5.994e+06	99900	99900	5.994e+06	0;
    2120	122.511	-0.651	94.02	-20.5	1.01	221.66	1	184.72	55.41	0	0	0	0	0	0	5.994e+06	99900	99900	5.994e+06	0;
    2120	47.3879	0	0	0	1.01	198.478	1	158.782	0	0	0	0	0	0	0	5.994e+06	99900	99900	5.994e+06	0;
    2123	90.3847	-17.666	38.7	-26.16	1	218.04	1	181.7	54.51	0	0	0	0	0	0	5.994e+06	99900	99900	5.994e+06	0;
    2123	146.569	-28.648	191.682	-191.682	1	613.875	1	491.1	0	0	0	0	0	0	0	5.994e+06	99900	99900	5.994e+06	0;
    2127	143.555	61.47	61.47	-41.56	1.04	346.32	1	288.6	86.58	0	0	0	0	0	0	5.994e+06	99900	99900	5.994e+06	0;
    2130	78.3734	-38.028	102.496	-102.496	1	328.25	1	262.6	0	0	0	0	0	0	0	5.994e+06	99900	99900	5.994e+06	0;
    2130	33.8653	0	0	0	1	141.833	1	113.467	0	0	0	0	0	0	0	5.994e+06	99900	99900	5.994e+06	0;
    2131	78.3734	3.295	102.496	-102.496	1	328.25	1	262.6	0	0	0	0	0	0	0	5.994e+06	99900	99900	5.994e+06	0;
    2131	33.8653	0	0	0	1	141.833	1	113.467	0	0	0	0	0	0	0	5.994e+06	99900	99900	5.994e+06	0;
    2132	78.3734	1.653	102.496	-102.496	1	328.25	1	262.6	0	0	0	0	0	0	0	5.994e+06	99900	99900	5.994e+06	0;
    2132	33.8653	0	0	0	1	141.833	1	113.467	0	0	0	0	0	0	0	5.994e+06	99900	99900	5.994e+06	0;
    3004	18.6564	0.25	7.99	-5.4	1	45	1	37.5	11.25	0	0	0	0	0	0	5.994e+06	99900	99900	5.994e+06	0;
    3017	84.3157	36.1	36.1	-24.41	1.01	203.4	1	169.5	50.85	0	0	0	0	0	0	5.994e+06	99900	99900	5.994e+06	0;
    3020	74.613	31.95	31.95	-21.6	1.03	180	1	150	45	0	0	0	0	0	0	5.994e+06	99900	99900	5.994e+06	0;
    3024	59.5413	77.867	77.867	-77.867	1	249.375	1	199.5	0	0	0	0	0	0	0	5.994e+06	99900	99900	5.994e+06	0;
    3028	99.484	42.6	42.6	-28.8	1.04	240	1	200	60	0	0	0	0	0	0	5.994e+06	99900	99900	5.994e+06	0;
    3034	64.9103	27.8	27.8	-18.79	1.03	156.6	1	130.5	39.15	0	0	0	0	0	0	5.994e+06	99900	99900	5.994e+06	0;
    3039	103.96	44.52	44.52	-30.1	1.04	250.8	1	209	62.7	0	0	0	0	0	0	5.994e+06	99900	99900	5.994e+06	0;
    3041	22.4077	29.305	29.305	-29.305	1	93.85	1	75.08	0	0	0	0	0	0	0	5.994e+06	99900	99900	5.994e+06	0;
    3042	22.4077	29.305	29.305	-29.305	1	93.85	1	75.08	0	0	0	0	0	0	0	5.994e+06	99900	99900	5.994e+06	0;
    3043	0	0	0.66	-0.14	1.04	1.56	0	1.3	0.39	0	0	0	0	0	0	5.994e+06	99900	99900	5.994e+06	0;
    3043	22.4077	29.305	29.305	-29.305	1.04	93.85	1	75.08	0	0	0	0	0	0	0	5.994e+06	99900	99900	5.994e+06	0;
    3044	0	0	45.5	-9.92	1.04	107.28	0	89.4	26.82	0	0	0	0	0	0	5.994e+06	99900	99900	5.994e+06	0;
    3044	22.4077	29.305	29.305	-29.305	1.04	93.85	1	75.08	0	0	0	0	0	0	0	5.994e+06	99900	99900	5.994e+06	0;
    3045	0	0	227.52	-49.62	1.04	536.4	0	447	134.1	0	0	0	0	0	0	5.994e+06	99900	99900	5.994e+06	0;
    3045	22.4077	29.305	29.305	-29.305	1.04	93.85	1	75.08	0	0	0	0	0	0	0	5.994e+06	99900	99900	5.994e+06	0;
    3048	119.879	51.33	51.33	-34.7	1.04	289.2	1	241	72.3	0	0	0	0	0	0	5.994e+06	99900	99900	5.994e+06	0;
    3049	60.1678	0	0	0	1	252	1	201.6	0	0	0	0	0	0	0	5.994e+06	99900	99900	5.994e+06	0;
    3050	22.2796	29.137	29.137	-29.137	1	93.313	1	74.65	0	0	0	0	0	0	0	5.994e+06	99900	99900	5.994e+06	0;
    3051	22.2796	29.137	29.137	-29.137	1	93.313	1	74.65	0	0	0	0	0	0	0	5.994e+06	99900	99900	5.994e+06	0;
    3055	121.954	52.22	52.22	-35.3	1.04	294.2	1	245.17	73.55	0	0	0	0	0	0	5.994e+06	99900	99900	5.994e+06	0;
    3056	121.954	52.22	52.22	-35.3	1.04	294.2	1	245.17	73.55	0	0	0	0	0	0	5.994e+06	99900	99900	5.994e+06	0;
    3057	121.954	52.22	52.22	-35.3	1.04	294.2	1	245.17	73.55	0	0	0	0	0	0	5.994e+06	99900	99900	5.994e+06	0;
    3060	82.3858	35.28	35.28	-23.85	1.04	198.75	1	165.63	49.69	0	0	0	0	0	0	5.994e+06	99900	99900	5.994e+06	0;
    3061	82.3858	35.28	35.28	-23.85	1.04	198.75	1	165.63	49.69	0	0	0	0	0	0	5.994e+06	99900	99900	5.994e+06	0;
    3062	82.3858	35.28	35.28	-23.85	1.04	198.75	1	165.63	49.69	0	0	0	0	0	0	5.994e+06	99900	99900	5.994e+06	0;
    3063	82.3858	35.28	35.28	-23.85	1.04	198.75	1	165.63	49.69	0	0	0	0	0	0	5.994e+06	99900	99900	5.994e+06	0;
    3065	40.0393	2.315	17.15	-11.59	1	96.6	1	80.5	24.15	0	0	0	0	0	0	5.994e+06	99900	99900	5.994e+06	0;
    3066	101.414	25.071	132.628	-132.628	1	424.75	1	339.8	0	0	0	0	0	0	0	5.994e+06	99900	99900	5.994e+06	0;
    3068	74.613	31.95	31.95	-21.6	1.04	180	1	150	45	0	0	0	0	0	0	5.994e+06	99900	99900	5.994e+06	0;
    3071	84.6608	-14.339	36.25	-24.51	1	204.24	1	170.2	51.06	0	0	0	0	0	0	5.994e+06	99900	99900	5.994e+06	0;
    3074	49.6426	-7.544	21.26	-14.37	1	119.76	1	99.8	29.94	0	0	0	0	0	0	5.994e+06	99900	99900	5.994e+06	0;
    3075	2.2386	0	0	0	1	9.375	1	7.5	0	0	0	0	0	0	0	5.994e+06	99900	99900	5.994e+06	0;
    3076	47.5433	0	0	0	1	199.125	1	159.3	0	0	0	0	0	0	0	5.994e+06	99900	99900	5.994e+06	0;
    3081	123.857	53.04	53.04	-35.86	1.04	298.8	1	249	74.7	0	0	0	0	0	0	5.994e+06	99900	99900	5.994e+06	0;
    3084	115.647	22.906	49.52	-33.48	1	279	1	232.5	69.75	0	0	0	0	0	0	5.994e+06	99900	99900	5.994e+06	0;
    3086	37.3065	15.97	15.97	-10.8	1	90	1	75	22.5	0	0	0	0	0	0	5.994e+06	99900	99900	5.994e+06	0;
    3087	0	0	15.97	-10.8	1	90	0	75	22.5	0	0	0	0	0	0	5.994e+06	99900	99900	5.994e+06	0;
    3092	99.484	42.6	42.6	-28.8	1.04	240	1	200	60	0	0	0	0	0	0	5.994e+06	99900	99900	5.994e+06	0;
    3095	59.9886	25.69	25.69	-17.37	1.04	144.72	1	120.6	36.18	0	0	0	0	0	0	5.994e+06	99900	99900	5.994e+06	0;
    3098	79.5872	34.08	34.08	-23.04	1.04	192	1	160	48	0	0	0	0	0	0	5.994e+06	99900	99900	5.994e+06	0;
    3105	29.5134	17.07	17.07	-0.74	1	46.72	1	44.5	0	0	0	0	0	0	0	5.994e+06	99900	99900	5.994e+06	0;
    3106	107.974	43.302	62.48	-2.69	1	170.94	1	162.8	0	0	0	0	0	0	0	5.994e+06	99900	99900	5.994e+06	0;
    3110	41.783	17.89	17.89	-12.1	1.04	100.8	1	84	25.2	0	0	0	0	0	0	5.994e+06	99900	99900	5.994e+06	0;
    3112	37.2071	13.627	15.93	-10.77	1	89.76	1	74.8	22.44	0	0	0	0	0	0	5.994e+06	99900	99900	5.994e+06	0;
    3113	37.2071	14.273	15.93	-10.77	1	89.76	1	74.8	22.44	0	0	0	0	0	0	5.994e+06	99900	99900	5.994e+06	0;
    3114	2.9848	3.903	3.903	-3.903	1	12.5	1	10	0	0	0	0	0	0	0	5.994e+06	99900	99900	5.994e+06	0;
    3115	190.741	4.464	249.449	-249.449	1	798.875	1	639.1	0	0	0	0	0	0	0	5.994e+06	99900	99900	5.994e+06	0;
    3117	31.3376	-2.418	13.42	-9.07	1	75.6	1	63	18.9	0	0	0	0	0	0	5.994e+06	99900	99900	5.994e+06	0;
    3118	59.6904	-9.757	25.56	-17.28	1	144	1	120	36	0	0	0	0	0	0	5.994e+06	99900	99900	5.994e+06	0;
    3120	19.698	0	0	0	1	47.52	1	39.6	11.88	0	0	0	0	0	0	5.994e+06	99900	99900	5.994e+06	0;
    3122	97.9916	2.25	41.96	-28.37	1	236.4	1	197	59.1	0	0	0	0	0	0	5.994e+06	99900	99900	5.994e+06	0;
    3126	29.8452	0	0	0	1	125	1	100	0	0	0	0	0	0	0	5.994e+06	99900	99900	5.994e+06	0;
    3127	67.1517	-19.44	28.76	-19.44	1	162	1	135	40.5	0	0	0	0	0	0	5.994e+06	99900	99900	5.994e+06	0;
...
];

%% branch data
%% fbus tbus r x b rateA rateB rateC ratio angle status angmin angmax PF QF PT QT
mpc.branch = [
    1001	1064	0.00524	0.0358	0.00609	22100	99900	99900	1	0	1	-360	360	0	0	0	0;
    1001	1064	0.00524	0.0358	0.00609	22100	99900	99900	1	0	1	-360	360	0	0	0	0;
    1001	1071	0.00435	0.02808	0.00536	22100	99900	99900	1	0	1	-360	360	0	0	0	0;
    1001	1071	0.00435	0.02808	0.00536	22100	99900	99900	1	0	1	-360	360	0	0	0	0;
    1002	1007	0.07776	0.46693	0.06336	9800	99900	99900	1	0	1	-360	360	0	0	0	0;
    1002	1010	0.05552	0.1357	0.01777	9800	99900	99900	1	0	1	-360	360	0	0	0	0;
    1003	1022	0.00485	0.02012	0.00341	22100	99900	99900	1	0	1	-360	360	0	0	0	0;
    1003	1022	0.00485	0.02012	0.00341	22100	99900	99900	1	0	1	-360	360	0	0	0	0;
    1003	1055	0.01574	0.03782	0.00513	9800	99900	99900	1	0	1	-360	360	0	0	0	0;
    1003	1055	0.01574	0.03782	0.00513	9800	99900	99900	1	0	1	-360	360	0	0	0	0;
    1003	1055	0.01574	0.03782	0.00513	9800	99900	99900	1	0	1	-360	360	0	0	0	0;
    1003	1055	0.01574	0.03782	0.00513	9800	99900	99900	1	0	1	-360	360	0	0	0	0;
    1004	3133	0.0042	0.03	0.055	52300	99900	99900	1	0	1	-360	360	0	0	0	0;
    1004	3133	0.0042	0.03	0.055	52300	99900	99900	1	0	1	-360	360	0	0	0	0;
    1005	1025	0.01842	0.0821	0.01204	14900	99900	99900	1	0	1	-360	360	0	0	0	0;
    1005	1025	0.01842	0.0821	0.01204	14900	99900	99900	1	0	1	-360	360	0	0	0	0;
    1005	1025	0.01842	0.0821	0.01204	14900	99900	99900	1	0	1	-360	360	0	0	0	0;
    1005	1025	0.01842	0.0821	0.01204	14900	99900	99900	1	0	1	-360	360	0	0	0	0;
    1005	1025	0.01842	0.0821	0.01204	14900	99900	99900	1	0	1	-360	360	0	0	0	0;
    1005	1061	0.00599	0.02484	0.00422	22100	99900	99900	1	0	1	-360	360	0	0	0	0;
    1005	1061	0.00599	0.02484	0.00422	22100	99900	99900	1	0	1	-360	360	0	0	0	0;
    1005	1067	0.01711	0.04181	0.00548	9800	99900	99900	1	0	1	-360	360	0	0	0	0;
    1005	1067	0.01711	0.04181	0.00548	9800	99900	99900	1	0	1	-360	360	0	0	0	0;
    1005	1067	0.01711	0.04181	0.00548	9800	99900	99900	1	0	1	-360	360	0	0	0	0;
    1005	1067	0.01711	0.04181	0.00548	9800	99900	99900	1	0	1	-360	360	0	0	0	0;
    1005	1067	0.01711	0.04181	0.00548	9800	99900	99900	1	0	1	-360	360	0	0	0	0;
    1005	1067	0.01711	0.04181	0.00548	9800	99900	99900	1	0	1	-360	360	0	0	0	0;
    1005	1067	0.01711	0.04181	0.00548	9800	99900	99900	1	0	1	-360	360	0	0	0	0;
    1005	1067	0.01711	0.04181	0.00548	9800	99900	99900	1	0	1	-360	360	0	0	0	0;
    1005	1067	0.01711	0.04181	0.00548	9800	99900	99900	1	0	1	-360	360	0	0	0	0;
    1005	1067	0.01711	0.04181	0.00548	9800	99900	99900	1	0	1	-360	360	0	0	0	0;
    1005	1067	0.01711	0.04181	0.00548	9800	99900	99900	1	0	1	-360	360	0	0	0	0;
    1007	1015	0.06224	0.37375	0.05072	9800	99900	99900	1	0	1	-360	360	0	0	0	0;
    1007	1031	0.04803	0.27434	0.04123	9800	99900	99900	1	0	1	-360	360	0	0	0	0;
    1007	1031	0.04803	0.27434	0.04123	9800	99900	99900	1	0	1	-360	360	0	0	0	0;
    1007	1031	0.04803	0.27434	0.04123	9800	99900	99900	1	0	1	-360	360	0	0	0	0;
    1008	1032	0.04501	0.11002	0.01441	9800	99900	99900	1	0	1	-360	360	0	0	0	0;
    1008	1032	0.04501	0.11002	0.01441	9800	99900	99900	1	0	1	-360	360	0	0	0	0;
    1008	1032	0.04501	0.11002	0.01441	9800	99900	99900	1	0	1	-360	360	0	0	0	0;
    1008	1032	0.04501	0.11002	0.01441	9800	99900	99900	1	0	0	-360	360	0	0	0	0;
    1008	1069	0.0083	0.03628	0.00553	14900	99900	99900	1	0	1	-360	360	0	0	0	0;
    1008	1069	0.0083	0.03628	0.00553	14900	99900	99900	1	0	0	-360	360	0	0	0	0;
    1010	1015	0.04703	0.28243	0.03833	9800	99900	99900	1	0	1	-360	360	0	0	0	0;
    1010	1030	0.0616	0.3699	0.0502	9800	99900	99900	1	0	1	-360	360	0	0	0	0;
    1012	1087	0.04934	0.20469	0.03473	14900	99900	99900	1	0	1	-360	360	0	0	0	0;
    1012	1087	0.04934	0.20469	0.03473	14900	99900	99900	1	0	1	-360	360	0	0	0	0;
    1012	1087	0.04934	0.20469	0.03473	14900	99900	99900	1	0	1	-360	360	0	0	0	0;
    1012	3051	0.0571	0.24977	0.03804	14900	99900	99900	1	0	1	-360	360	0	0	0	0;
    1012	3051	0.0571	0.24977	0.03804	14900	99900	99900	1	0	1	-360	360	0	0	0	0;
    1012	3051	0.0571	0.24977	0.03804	14900	99900	99900	1	0	1	-360	360	0	0	0	0;
    1013	1031	0.04509	0.27078	0.03675	9800	99900	99900	1	0	1	-360	360	0	0	0	0;
    1013	1031	0.04509	0.27078	0.03675	9800	99900	99900	1	0	1	-360	360	0	0	0	0;
    1013	1031	0.04509	0.27078	0.03675	9800	99900	99900	1	0	1	-360	360	0	0	0	0;
    1013	1047	0.00947	0.06117	0.01167	22100	99900	99900	1	0	1	-360	360	0	0	0	0;
    1013	1086	0.079	0.19311	0.02529	9800	99900	99900	1	0	1	-360	360	0	0	0	0;
    1014	1047	0.03566	0.14794	0.0251	14900	99900	99900	1	0	1	-360	360	0	0	0	0;
    1014	1047	0.03566	0.14794	0.0251	14900	99900	99900	1	0	1	-360	360	0	0	0	0;
    1014	1083	0.04105	0.18293	0.02682	14900	99900	99900	1	0	1	-360	360	0	0	0	0;
    1014	1083	0.04105	0.18293	0.02682	14900	99900	99900	1	0	1	-360	360	0	0	0	0;
    1016	1034	0.01828	0.10976	0.01489	9800	99900	99900	1	0	1	-360	360	0	0	0	0;
    1016	1034	0.01828	0.10976	0.01489	9800	99900	99900	1	0	1	-360	360	0	0	0	0;
    1016	1034	0.01828	0.10976	0.01489	9800	99900	99900	1	0	1	-360	360	0	0	0	0;
    1016	1034	0.01828	0.10976	0.01489	9800	99900	99900	1	0	1	-360	360	0	0	0	0;
    1016	1034	0.01828	0.10976	0.01489	9800	99900	99900	1	0	1	-360	360	0	0	0	0;
    1016	1034	0.01828	0.10976	0.01489	9800	99900	99900	1	0	1	-360	360	0	0	0	0;
    1016	1034	0.01828	0.10976	0.01489	9800	99900	99900	1	0	1	-360	360	0	0	0	0;
    1016	1034	0.01828	0.10976	0.01489	9800	99900	99900	1	0	1	-360	360	0	0	0	0;
    1016	1034	0.01828	0.10976	0.01489	9800	99900	99900	1	0	1	-360	360	0	0	0	0;
    1016	1034	0.01828	0.10976	0.01489	9800	99900	99900	1	0	1	-360	360	0	0	0	0;
    1016	1068	0.02773	0.15837	0.0238	9800	99900	99900	1	0	1	-360	360	0	0	0	0;
    1017	1018	0.03227	0.07887	0.01033	9800	99900	99900	1	0	1	-360	360	0	0	0	0;
    1017	1018	0.03227	0.07887	0.01033	9800	99900	99900	1	0	1	-360	360	0	0	0	0;
    1017	1018	0.03227	0.07887	0.01033	9800	99900	99900	1	0	1	-360	360	0	0	0	0;
    1017	1029	0.03244	0.14188	0.02161	14900	99900	99900	1	0	1	-360	360	0	0	0	0;
    1017	1037	0.00752	0.03352	0.00491	22100	99900	99900	1	0	1	-360	360	0	0	0	0;
    1017	1037	0.00752	0.03352	0.00491	22100	99900	99900	1	0	1	-360	360	0	0	0	0;
    1017	1037	0.00752	0.03352	0.00491	22100	99900	99900	1	0	1	-360	360	0	0	0	0;
    1017	1037	0.00752	0.03352	0.00491	22100	99900	99900	1	0	1	-360	360	0	0	0	0;
    1017	1047	0.036	0.156	0.024	15000	99900	99900	1	0	1	-360	360	0	0	0	0;
    1017	1047	0.036	0.156	0.024	15000	99900	99900	1	0	1	-360	360	0	0	0	0;
    1017	1047	0.036	0.156	0.024	15000	99900	99900	1	0	1	-360	360	0	0	0	0;
    1017	1047	0.036	0.156	0.024	15000	99900	99900	1	0	1	-360	360	0	0	0	0;
    1017	1047	0.036	0.156	0.024	15000	99900	99900	1	0	1	-360	360	0	0	0	0;
    1018	1024	0.01094	0.06572	0.00892	9800	99900	99900	1	0	1	-360	360	0	0	0	0;
    1018	1024	0.01094	0.06572	0.00892	9800	99900	99900	1	0	1	-360	360	0	0	0	0;
    1018	1024	0.01094	0.06572	0.00892	9800	99900	99900	1	0	1	-360	360	0	0	0	0;
    1019	1040	0.04978	0.20651	0.03504	14900	99900	99900	1	0	1	-360	360	0	0	0	0;
    1019	1040	0.04978	0.20651	0.03504	14900	99900	99900	1	0	1	-360	360	0	0	0	0;
    1019	1040	0.04978	0.20651	0.03504	14900	99900	99900	1	0	1	-360	360	0	0	0	0;
    1019	1040	0.04978	0.20651	0.03504	14900	99900	99900	1	0	1	-360	360	0	0	0	0;
    1019	1040	0.04978	0.20651	0.03504	14900	99900	99900	1	0	1	-360	360	0	0	0	0;
    1019	1040	0.04978	0.20651	0.03504	14900	99900	99900	1	0	1	-360	360	0	0	0	0;
    1019	1040	0.04978	0.20651	0.03504	14900	99900	99900	1	0	1	-360	360	0	0	0	0;
    1019	1045	0.01522	0.0372	0.00487	22100	99900	99900	1	0	1	-360	360	0	0	0	0;
    1019	1045	0.01522	0.0372	0.00487	22100	99900	99900	1	0	1	-360	360	0	0	0	0;
    1019	1071	0.0044	0.028	0.0054	22500	99900	99900	1	0	1	-360	360	0	0	0	0;
    1019	1071	0.0044	0.028	0.0054	22500	99900	99900	1	0	1	-360	360	0	0	0	0;
    1019	1071	0.0044	0.028	0.0054	22500	99900	99900	1	0	1	-360	360	0	0	0	0;
    1019	1084	0.03	0.16	0.025	22000	99900	99900	1	0	1	-360	360	0	0	0	0;
    1019	1084	0.03	0.16	0.025	22000	99900	99900	1	0	0	-360	360	0	0	0	0;
    1020	1025	0.00828	0.03434	0.00583	14900	99900	99900	1	0	1	-360	360	0	0	0	0;
    1020	1025	0.00828	0.03434	0.00583	14900	99900	99900	1	0	1	-360	360	0	0	0	0;
    1020	1025	0.00828	0.03434	0.00583	14900	99900	99900	1	0	1	-360	360	0	0	0	0;
    1020	1025	0.00828	0.03434	0.00583	14900	99900	99900	1	0	1	-360	360	0	0	0	0;
    1020	1025	0.00828	0.03434	0.00583	14900	99900	99900	1	0	1	-360	360	0	0	0	0;
    1020	1025	0.00828	0.03434	0.00583	14900	99900	99900	1	0	1	-360	360	0	0	0	0;
    1020	1084	0.01056	0.06337	0.0086	22100	99900	99900	1	0	1	-360	360	0	0	0	0;
    1020	3059	0.0189	0.06	0.006	30000	99900	99900	1	0	1	-360	360	0	0	0	0;
    1020	3059	0.0189	0.06	0.006	30000	99900	99900	1	0	1	-360	360	0	0	0	0;
    1020	3059	0.0189	0.06	0.006	30000	99900	99900	1	0	1	-360	360	0	0	0	0;
    1020	3059	0.0189	0.06	0.006	30000	99900	99900	1	0	1	-360	360	0	0	0	0;
    1020	3130	0.00996	0.06938	0.01134	22100	99900	99900	1	0	1	-360	360	0	0	0	0;
    1020	3130	0.00996	0.06938	0.01134	22100	99900	99900	1	0	0	-360	360	0	0	0	0;
    1022	1028	0.01433	0.09253	0.01765	22100	99900	99900	1	0	1	-360	360	0	0	0	0;
    1022	1028	0.01433	0.09253	0.01765	22100	99900	99900	1	0	1	-360	360	0	0	0	0;
    1024	1090	0.01414	0.06303	0.00924	14900	99900	99900	1	0	1	-360	360	0	0	0	0;
    1024	1090	0.01414	0.06303	0.00924	14900	99900	99900	1	0	1	-360	360	0	0	0	0;
    1024	1090	0.01414	0.06303	0.00924	14900	99900	99900	1	0	1	-360	360	0	0	0	0;
    1027	1045	0.02505	0.10957	0.01669	22100	99900	99900	1	0	1	-360	360	0	0	0	0;
    1027	1056	0.03121	0.0763	0.00999	25000	99900	99900	1	0	1	-360	360	0	0	0	0;
    1027	1056	0.03121	0.0763	0.00999	25000	99900	99900	1	0	1	-360	360	0	0	0	0;
    1028	3109	0.00428	0.01875	0.00286	25000	99900	99900	1	0	1	-360	360	0	0	0	0;
    1028	3109	0.00428	0.01875	0.00286	25000	99900	99900	1	0	1	-360	360	0	0	0	0;
    1028	3109	0.00428	0.01875	0.00286	25000	99900	99900	1	0	1	-360	360	0	0	0	0;
    1029	1056	0.02054	0.11733	0.01763	22100	99900	99900	1	0	1	-360	360	0	0	0	0;
    1030	1038	0.07404	0.42285	0.06354	9800	99900	99900	1	0	1	-360	360	0	0	0	0;
    1030	1083	0.06537	0.37334	0.0561	9800	99900	99900	1	0	1	-360	360	0	0	0	0;
    1032	1036	0.01956	0.11746	0.01594	9800	99900	99900	1	0	1	-360	360	0	0	0	0;
    1032	1036	0.01956	0.11746	0.01594	9800	99900	99900	1	0	1	-360	360	0	0	0	0;
    1032	1038	0.045	0.11	0.015	15500	99900	99900	1	0	1	-360	360	0	0	0	0;
    1032	1038	0.045	0.11	0.015	15500	99900	99900	1	0	1	-360	360	0	0	0	0;
    1032	1038	0.045	0.11	0.015	15500	99900	99900	1	0	1	-360	360	0	0	0	0;
    1032	1038	0.045	0.11	0.015	15500	99900	99900	1	0	1	-360	360	0	0	0	0;
    1032	1038	0.045	0.11	0.015	15500	99900	99900	1	0	1	-360	360	0	0	0	0;
    1032	1038	0.045	0.11	0.015	15500	99900	99900	1	0	1	-360	360	0	0	0	0;
    1032	1038	0.045	0.11	0.015	15500	99900	99900	1	0	1	-360	360	0	0	0	0;
    1032	1038	0.045	0.11	0.015	15500	99900	99900	1	0	1	-360	360	0	0	0	0;
    1032	1038	0.045	0.11	0.015	15500	99900	99900	1	0	1	-360	360	0	0	0	0;
    1032	1038	0.045	0.11	0.015	15500	99900	99900	1	0	1	-360	360	0	0	0	0;
    1033	1081	0.003	0.031	0.059	54800	99900	99900	1	0	1	-360	360	0	0	0	0;
    1033	1081	0.003	0.031	0.059	54800	99900	99900	1	0	1	-360	360	0	0	0	0;
    1033	1081	0.003	0.031	0.059	54800	99900	99900	1	0	1	-360	360	0	0	0	0;
    1033	1081	0.003	0.031	0.059	54800	99900	99900	1	0	1	-360	360	0	0	0	0;
    1033	3050	0.0139	0.136	0.262	64700	99900	99900	1	0	1	-360	360	0	0	0	0;
    1033	3050	0.0139	0.136	0.262	64700	99900	99900	1	0	1	-360	360	0	0	0	0;
    1034	1067	0.00795	0.04771	0.00647	9800	99900	99900	1	0	1	-360	360	0	0	0	0;
    1034	1067	0.00795	0.04771	0.00647	9800	99900	99900	1	0	1	-360	360	0	0	0	0;
    1034	1067	0.00795	0.04771	0.00647	9800	99900	99900	1	0	1	-360	360	0	0	0	0;
    1034	1067	0.00795	0.04771	0.00647	9800	99900	99900	1	0	1	-360	360	0	0	0	0;
    1034	1067	0.00795	0.04771	0.00647	9800	99900	99900	1	0	1	-360	360	0	0	0	0;
    1034	1067	0.00795	0.04771	0.00647	9800	99900	99900	1	0	1	-360	360	0	0	0	0;
    1034	1067	0.00795	0.04771	0.00647	9800	99900	99900	1	0	1	-360	360	0	0	0	0;
    1034	1067	0.00795	0.04771	0.00647	9800	99900	99900	1	0	1	-360	360	0	0	0	0;
    1034	1067	0.00795	0.04771	0.00647	9800	99900	99900	1	0	1	-360	360	0	0	0	0;
    1034	1067	0.00795	0.04771	0.00647	9800	99900	99900	1	0	1	-360	360	0	0	0	0;
    1034	1067	0.00795	0.04771	0.00647	9800	99900	99900	1	0	1	-360	360	0	0	0	0;
    1034	1067	0.00795	0.04771	0.00647	9800	99900	99900	1	0	1	-360	360	0	0	0	0;
    1036	1088	0.02065	0.11793	0.01772	9800	99900	99900	1	0	1	-360	360	0	0	0	0;
    1037	1071	0.00669	0.04319	0.00824	30000	99900	99900	1	0	1	-360	360	0	0	0	0;
    1037	1071	0.00669	0.04319	0.00824	30000	99900	99900	1	0	1	-360	360	0	0	0	0;
    1037	1071	0.00669	0.04319	0.00824	30000	99900	99900	1	0	1	-360	360	0	0	0	0;
    1038	1082	0.01115	0.04969	0.00729	14900	99900	99900	1	0	1	-360	360	0	0	0	0;
    1038	1082	0.01115	0.04969	0.00729	14900	99900	99900	1	0	0	-360	360	0	0	0	0;
    1038	1083	0.01	0.05	0.007	22100	99900	99900	1	0	1	-360	360	0	0	0	0;
    1038	1083	0.01	0.05	0.007	22100	99900	99900	1	0	1	-360	360	0	0	0	0;
    1038	1083	0.01	0.05	0.007	22100	99900	99900	1	0	1	-360	360	0	0	0	0;
    1038	1083	0.01	0.05	0.007	22100	99900	99900	1	0	1	-360	360	0	0	0	0;
    1038	1083	0.01	0.05	0.007	22100	99900	99900	1	0	1	-360	360	0	0	0	0;
    1038	1083	0.01	0.05	0.007	22100	99900	99900	1	0	1	-360	360	0	0	0	0;
    1040	1090	0.02991	0.13329	0.01955	14900	99900	99900	1	0	1	-360	360	0	0	0	0;
    1040	1090	0.02991	0.13329	0.01955	14900	99900	99900	1	0	0	-360	360	0	0	0	0;
    1041	1065	0.00386	0.02203	0.00331	9800	99900	99900	1	0	1	-360	360	0	0	0	0;
    1041	1067	0.00393	0.01722	0.00262	14900	99900	99900	1	0	1	-360	360	0	0	0	0;
    1044	3019	0.03857	0.17192	0.02521	14900	99900	99900	1	0	1	-360	360	0	0	0	0;
    1044	3019	0.03857	0.17192	0.02521	14900	99900	99900	1	0	1	-360	360	0	0	0	0;
    1044	3130	0.02731	0.19029	0.03111	22100	99900	99900	1	0	1	-360	360	0	0	0	0;
    1045	1064	0.00545	0.03794	0.0062	22100	99900	99900	1	0	1	-360	360	0	0	0	0;
    1046	1087	0.03262	0.14269	0.02173	14900	99900	99900	1	0	1	-360	360	0	0	0	0;
    1046	1087	0.03262	0.14269	0.02173	14900	99900	99900	1	0	0	-360	360	0	0	0	0;
    1046	3009	0.05654	0.23454	0.0398	14900	99900	99900	1	0	1	-360	360	0	0	0	0;
    1046	3009	0.05654	0.23454	0.0398	14900	99900	99900	1	0	1	-360	360	0	0	0	0;
    1046	3009	0.05654	0.23454	0.0398	14900	99900	99900	1	0	1	-360	360	0	0	0	0;
    1046	3009	0.05654	0.23454	0.0398	14900	99900	99900	1	0	1	-360	360	0	0	0	0;
    1046	3009	0.05654	0.23454	0.0398	14900	99900	99900	1	0	1	-360	360	0	0	0	0;
    1046	3009	0.05654	0.23454	0.0398	14900	99900	99900	1	0	1	-360	360	0	0	0	0;
    1046	3009	0.05654	0.23454	0.0398	14900	99900	99900	1	0	1	-360	360	0	0	0	0;
    1046	3009	0.05654	0.23454	0.0398	14900	99900	99900	1	0	1	-360	360	0	0	0	0;
    1047	1085	0.00947	0.06117	0.01167	22100	99900	99900	1	0	1	-360	360	0	0	0	0;
    1053	1081	0.003	0.03	0.06	54800	99900	99900	1	0	1	-360	360	0	0	0	0;
    1054	1056	0.02202	0.09633	0.01467	14900	99900	99900	1	0	1	-360	360	0	0	0	0;
    1054	1089	0.08737	0.21357	0.02796	9800	99900	99900	1	0	1	-360	360	0	0	0	0;
    1055	1089	0.04982	0.12179	0.01595	9800	99900	99900	1	0	1	-360	360	0	0	0	0;
    1055	1089	0.04982	0.12179	0.01595	9800	99900	99900	1	0	1	-360	360	0	0	0	0;
    1056	1061	0.02267	0.12946	0.01945	15000	99900	99900	1	0	1	-360	360	0	0	0	0;
    1056	1061	0.02267	0.12946	0.01945	15000	99900	99900	1	0	1	-360	360	0	0	0	0;
    1056	1065	0.02269	0.12962	0.01948	25000	99900	99900	1	0	1	-360	360	0	0	0	0;
    1058	1069	0.0074	0.05155	0.00843	22100	99900	99900	1	0	1	-360	360	0	0	0	0;
    1058	1069	0.0074	0.05155	0.00843	22100	99900	99900	1	0	1	-360	360	0	0	0	0;
    1058	1087	0.01573	0.10956	0.01791	22100	99900	99900	1	0	1	-360	360	0	0	0	0;
    1058	1087	0.01573	0.10956	0.01791	22100	99900	99900	1	0	1	-360	360	0	0	0	0;
...
];

%% generator cost data
%% 1 startup shutdown n x1 y1 ... xn yn
%% 2 startup shutdown n c(n-1) ... c0
mpc.gencost = [
    2	0	0	3	0	2926.93	0.001;
    2	0	0	3	0	0	0;
    2	0	0	3	0	0	0;
    2	0	0	3	0	0	0.01;
    2	0	0	3	0	0	0;
    2	0	0	3	0	0	0;
    2	0	0	3	0	0	0.01;
    2	0	0	3	0	0	0.01;
    2	0	0	3	0	0	0;
    2	0	0	3	0	0	0.01;
    2	0	0	3	0	0	0;
    2	0	0	3	0	0	0.01;
    2	0	0	3	0	0	0;
    2	0	0	3	0	0	0.01;
    2	0	0	3	0	0	0.01;
    2	0	0	3	0	0	0.01;
    2	0	0	3	0	0	0.01;
    2	0	0	3	0	0	0.01;
    2	0	0	3	0	0	0;
    2	0	0	3	0	0	0.01;
    2	0	0	3	0	0	0;
    2	0	0	3	0	0	0.01;
    2	0	0	3	0	0	0.01;
    2	0	0	3	0	0	0;
    2	0	0	3	0	0	0.01;
    2	0	0	3	0	0	0.01;
    2	0	0	3	0	0	0;
    2	0	0	3	0	0	0;
    2	0	0	3	0	0	0.01;
    2	0	0	3	0	0	0.01;
    2	0	0	3	0	1087.8	0.001;
    2	0	0	3	0	1087.8	0.001;
    2	0	0	3	0	734.1	0.001;
    2	0	0	3	0	734.1	0.001;
    2	0	0	3	0	734.1	0.001;
    2	0	0	3	0	868.2	0.001;
    2	0	0	3	0	0	0.01;
    2	0	0	3	0	0	0;
    2	0	0	3	0	608.4	0.001;
    2	0	0	3	0	603	0.001;
    2	0	0	3	0	0	0.01;
    2	0	0	3	0	0	0;
    2	0	0	3	0	0	0.01;
    2	0	0	3	0	0	0;
    2	0	0	3	0	0	0.01;
    2	0	0	3	0	0	0;
    2	0	0	3	0	0	0;
    2	0	0	3	0	888.2	0.001;
    2	0	0	3	0	888.2	0.001;
    2	0	0	3	0	888.2	0.001;
    2	0	0	3	0	888.2	0.001;
    2	0	0	3	0	888.2	0.001;
    2	0	0	3	0	888.2	0.001;
    2	0	0	3	0	743.25	0.001;
    2	0	0	3	0	743.25	0.001;
    2	0	0	3	0	743.25	0.001;
    2	0	0	3	0	1029.75	0.001;
    2	0	0	3	0	0	0;
    2	0	0	3	0	0	0.01;
    2	0	0	3	0	0	0.01;
    2	0	0	3	0	0	0;
    2	0	0	3	0	0	0.01;
    2	0	0	3	0	0	0.01;
    2	0	0	3	0	0	0.01;
    2	0	0	3	0	0	0;
    2	0	0	3	0	0	0.01;
    2	0	0	3	0	0	0.01;
    2	0	0	3	0	0	0;
    2	0	0	3	0	0	0;
    2	0	0	3	0	1187.7	0.002;
    2	0	0	3	0	1187.7	0.002;
    2	0	0	3	0	1187.7	0.002;
    2	0	0	3	0	0	0.01;
    2	0	0	3	0	0	0.01;
    2	0	0	3	0	0	0.01;
    2	0	0	3	0	0	0.01;
    2	0	0	3	0	0	0;
    2	0	0	3	0	0	0.01;
    2	0	0	3	0	0	0.01;
    2	0	0	3	0	0	0;
    2	0	0	3	0	724.99	0.001;
    2	0	0	3	0	850.01	0.001;
    2	0	0	3	0	0	0.01;
    2	0	0	3	0	0	0.01;
    2	0	0	3	0	0	0.01;
    2	0	0	3	0	0	0.01;
    2	0	0	3	0	0	0.01;
    2	0	0	3	0	0	0.01;
    2	0	0	3	0	0	0.01;
    2	0	0	3	0	0	0;
    2	0	0	3	0	0	0.01;
    2	0	0	3	0	0	0.01;
    2	0	0	3	0	0	0.01;
    2	0	0	3	0	0	0.01;
    2	0	0	3	0	0	0.01;
    2	0	0	3	0	0	0.01;
    2	0	0	3	0	236.16	0.002;
    2	0	0	3	0	1398.51	0.002;
    2	0	0	3	0	0	0;
    2	0	0	3	0	0	0;
    2	0	0	3	0	0	0.01;
    2	0	0	3	0	0	0.01;
    2	0	0	3	0	0	0;
    2	0	0	3	0	0	0;
    2	0	0	3	0	0	0;
    2	0	0	3	0	0	0.01;
    2	0	0	3	0	630	0.001;
    2	0	0	3	0	630	0.001;
    2	0	0	3	0	660	0.001;
    2	0	0	3	0	0	0.01;
    2	0	0	3	0	0	0.01;
    2	0	0	3	0	0	0;
    2	0	0	3	0	0	0.01;
    2	0	0	3	0	0	0.01;
    2	0	0	3	0	0	0;
    2	0	0	3	0	0	0.01;
    2	0	0	3	0	0	0;
    2	0	0	3	0	0	0.01;
    2	0	0	3	0	0	0;
    2	0	0	3	0	0	0;
    2	0	0	3	0	1001.59	0.002;
    2	0	0	3	0	1001.59	0.002;
    2	0	0	3	0	1001.59	0.002;
    2	0	0	3	0	0	0.01;
    2	0	0	3	0	0	0.01;
    2	0	0	3	0	0	0.01;
    2	0	0	3	0	877.08	0.001;
    2	0	0	3	0	0	0.01;
    2	0	0	3	0	877.08	0.001;
    2	0	0	3	0	0	0.01;
    2	0	0	3	0	877.08	0.001;
    2	0	0	3	0	0	0.01;
    2	0	0	3	0	877.08	0.001;
    2	0	0	3	0	0	0.01;
    2	0	0	3	0	877.08	0.001;
    2	0	0	3	0	0	0.01;
    2	0	0	3	0	877.08	0.001;
    2	0	0	3	0	0	0.01;
    2	0	0	3	0	0	0;
    2	0	0	3	0	0	0.01;
    2	0	0	3	0	0	0;
    2	0	0	3	0	0	0.01;
    2	0	0	3	0	0	0.01;
    2	0	0	3	0	0	0.01;
    2	0	0	3	0	0	0.01;
    2	0	0	3	0	0	0.01;
    2	0	0	3	0	0	0.01;
    2	0	0	3	0	0	0;
    2	0	0	3	0	0	0;
    2	0	0	3	0	0	0;
    2	0	0	3	0	0	0.01;
    2	0	0	3	0	0	0;
    2	0	0	3	0	0	0;
    2	0	0	3	0	0	0;
    2	0	0	3	0	0	0.01;
    2	0	0	3	0	0	0.01;
    2	0	0	3	0	601.95	0.002;
    2	0	0	3	0	0	0.01;
    2	0	0	3	0	734.1	0.002;
    2	0	0	3	0	0	0.01;
    2	0	0	3	0	1365.86	0.002;
    2	0	0	3	0	0	0.01;
    2	0	0	3	0	0	0;
    2	0	0	3	0	0	0.01;
    2	0	0	3	0	0	0.01;
    2	0	0	3	0	0	0.01;
    2	0	0	3	0	0	0;
    2	0	0	3	0	0	0;
    2	0	0	3	0	0	0;
    2	0	0	3	0	0	0;
    2	0	0	3	0	0	0;
    2	0	0	3	0	0	0;
    2	0	0	3	0	0	0;
    2	0	0	3	0	0	0;
    2	0	0	3	0	0	0.01;
    2	0	0	3	0	0	0;
    2	0	0	3	0	0	0;
    2	0	0	3	0	0	0;
    2	0	0	3	0	0	0.01;
    2	0	0	3	0	0	0.01;
    2	0	0	3	0	0	0;
    2	0	0	3	0	0	0;
    2	0	0	3	0	0	0;
    2	0	0	3	0	0	0;
    2	0	0	3	0	0	0;
    2	0	0	3	0	0	0;
    2	0	0	3	0	0	0;
    2	0	0	3	0	0	0;
    2	0	0	3	0	0	0;
    2	0	0	3	0	0	0;
    2	0	0	3	0	0	0;
    2	0	0	3	0	0	0;
    2	0	0	3	0	0	0.01;
    2	0	0	3	0	0	0.01;
    2	0	0	3	0	0	0;
    2	0	0	3	0	0	0;
    2	0	0	3	0	0	0;
    2	0	0	3	0	0	0;
    2	0	0	3	0	0	0.01;
    2	0	0	3	0	0	0;
...
];

%% bus names
mpc.bus_name = {
    'ODESSA 2 0';
    'PRESIDIO 2 0';
    'O DONNELL ~1';
    'O DONNELL ~2';
    'BIG SPRING~8';
    'BIG SPRING~9';
    'VAN HORN 0';
    'IRAAN 2 0';
    'IRAAN 2 1';
    'PRESIDIO 1 0';
    'PRESIDIO 1 1';
    'SANDERSON 0';
    'MONAHANS 2 0';
    'GRANDFALLS 0';
    'MARFA 0';
    'GARDEN CIT~1';
    'ODESSA 4 0';
    'NOTREES 0';
    'MIDLAND 4 0';
    'BIG SPRING~1';
    'BIG SPRING~2';
    'O DONNELL ~3';
    'O DONNELL ~4';
    'ODESSA 6 0';
    'BIG SPRIN~14';
    'BIG SPRIN~15';
    'MIDLAND 2 0';
    'COAHOMA 0';
    'MIDLAND 3 0';
    'ALPINE 0';
    'FORT DAVIS 0';
    'MCCAMEY 1 0';
    'MCCAMEY 1 1';
    'BIG SPRING~6';
    'BIG SPRING~7';
    'CRANE 0';
    'ODESSA 5 0';
    'FORT STOCK~1';
    'FORT STOCK~2';
    'ANDREWS 0';
    'FORSAN 0';
    'FORSAN 1';
    'FORSAN 2';
    'BIG LAKE 0';
    'MIDLAND 5 0';
    'OZONA 0';
    'MONAHANS 1 0';
    'MONAHANS 1 1';
    'MONAHANS 1 2';
    'MONAHANS 1 3';
    'MONAHANS 1 4';
    'MONAHANS 1 5';
    'MONAHANS 1 6';
    'STANTON 0';
    'ODONNELL 0';
    'LENORAH 0';
    'LENORAH 1';
    'IRAAN 3 0';
    'IRAAN 3 1';
    'IRAAN 3 2';
    'BIG SPRIN~10';
    'BIG SPRIN~11';
    'BIG SPRIN~12';
    'ODESSA 3 0';
    'BIG SPRING~4';
    'BIG SPRING~5';
    'BIG SPRIN~13';
    'MIDLAND 1 0';
    'IRAAN 1 0';
    'IRAAN 1 1';
    'ODESSA 1 0';
    'ODESSA 1 1';
    'ODESSA 1 2';
    'ODESSA 1 3';
    'ODESSA 1 4';
    'ODESSA 1 5';
    'ODESSA 1 6';
    'ODESSA 1 7';
    'ODESSA 1 8';
    'ODESSA 1 9';
    'ODESSA 1 10';
    'FORT STOCK~3';
    'FORT STOCK~4';
    'BIG SPRING~3';
    'KERMIT 0';
    'PECOS 0';
    'SHEFFIELD 0';
    'MCCAMEY 2 0';
    'LAMESA 0';
    'GOLDSMITH 0';
    'RALLS 2 0';
    'PARIS 3 0';
    'SAVOY 0';
    'SAVOY 1';
    'SAVOY 2';
    'SAVOY 3';
    'SAVOY 4';
    'HONEY GROV~1';
    'MEMPHIS 0';
    'IOWA PARK 0';
    'VERNON 2 0';
    'PANHANDLE ~2';
    'PANHANDLE ~3';
    'PANHANDLE ~4';
    'CHILDRESS 0';
    'FORESTBURG 0';
    'SHERMAN 3 0';
    'PANHANDLE ~7';
    'PANHANDLE ~8';
    'PANHANDLE ~9';
    'WICHITA F~12';
    'PARIS 2 0';
    'PARIS 2 1';
    'PARIS 2 2';
    'PARIS 2 3';
    'WICHITA F~10';
    'WHEELER 0';
    'DEPORT 0';
    'WICHITA FA~9';
    'SILVERTON 0';
    'BONHAM 0';
    'MATADOR 0';
    'ARTHUR CIT~1';
    'LEONARD 0';
    'GORDONVILL~1';
    'KNOX CITY 0';
    'WICHITA F~13';
    'LINDSAY 0';
    'ECTOR 0';
    'SUNSET 0';
    'CLARKSVILL~1';
    'PANHANDLE ~5';
    'PANHANDLE ~6';
    'SADLER 0';
    'WHITESBORO 0';
    'SHEPPARD A~1';
    'POTTSBORO 0';
    'BELLS 0';
    'CROSBYTON 0';
    'ELECTRA 0';
    'PATTONVILL~1';
    'HENRIETTA 0';
    'PANHANDLE~13';
    'BOWIE 0';
    'WICHITA FA~1';
    'WICHITA FA~2';
    'WICHITA FA~3';
    'WICHITA FA~4';
    'WHITE DEER 0';
    'WHITE DEER 1';
    'ROXTON 0';
    'VERNON 1 0';
    'VERNON 1 1';
    'DENISON 2 0';
    'SUMNER 0';
    'GAINESVILL~1';
    'ASPERMONT 0';
    'WICHITA F~11';
    'WINDTHORST 0';
    'HOWE 0';
    'ARCHER 2 0';
    'ARCHER 2 1';
    'COLLINSVIL~1';
    'JAYTON 0';
    'JAYTON 1';
    'JAYTON 2';
    'JAYTON 3';
    'MUENSTER 1 0';
    'MUENSTER 1 1';
    'PADUCAH 0';
    'NOCONA 0';
    'DODD CITY 0';
    'WICHITA FA~5';
    'WICHITA FA~6';
    'WICHITA FA~7';
    'WICHITA FA~8';
    'MONTAGUE 0';
    'SPUR 0';
    'ARCHER 1 0';
    'ARCHER 1 1';
    'ANNONA 0';
    'SEYMOUR 0';
    'DENISON 1 0';
    'PANHANDLE~10';
    'PANHANDLE~11';
    'PANHANDLE~12';
    'RALLS 1 0';
    'RALLS 1 1';
    'RALLS 1 2';
    'RALLS 1 3';
    'RALLS 1 4';
    'SHERMAN 1 0';
    'SHERMAN 1 1';
    'SHERMAN 1 2';
    'SHERMAN 1 3';
    'SHERMAN 1 4';
    'WHITEWRIGH~1';
    'SHERMAN 2 0';
    'ROCHESTER 0';
    'BURKBURNET~1';
    'MUENSTER 2 0';
    'ARCHER CIT~1';
    'PETROLIA 0';
    'PARIS 1 0';
    'PARIS 1 1';
    'PARIS 1 2';
    'PARIS 1 3';
    'PARIS 1 4';
    'PARIS 1 5';
    'PARIS 1 6';
    'PARIS 1 7';
    'BAGWELL 0';
    'TELEPHONE 0';
    'PANHANDLE ~1';
    'VAN ALSTYN~1';
    'TIOGA 0';
    'VALLEY VIE~1';
    'MIAMI 0';
    'MIAMI 1';
    'TRENTON 0';
    'HASKELL 0';
    'HASKELL 1';
    'HASKELL 2';
    'SAINT JO 0';
    'KERRVILLE 0';
    'KERRVILLE 1';
    'SWEETWATER~4';
    'SWEETWATER~5';
    'LEAKEY 0';
    'HAMLIN 0';
    'MERKEL 3 0';
    'COLEMAN 0';
    'SONORA 0';
    'CAMP WOOD 0';
    'LLANO 0';
    'WILLOW CIT~1';
    'ABILENE 4 0';
    'KINGSLAND 0';
    'ROSCOE 6 0';
    'BLACKWELL 0';
    'BLACKWELL 1';
    'CHRISTOVAL 0';
    'CHRISTOVAL 1';
    'CHRISTOVAL 2';
    'LUEDERS 0';
    'COLORADO C~1';
    'STAMFORD 0';
    'ELDORADO 0';
    'SAN SABA 0';
    'ABILENE 2 0';
    'ABILENE 2 1';
    'ABILENE 2 2';
    'LOMETA 0';
    'SAN ANGELO~1';
    'TUSCOLA 0';
    'ABILENE 7 0';
    'SNYDER 1 0';
    'SNYDER 1 1';
    'CHEROKEE 0';
    'RICHLAND S~1';
    'ROSCOE 2 0';
    'ROSCOE 2 1';
    'ROSCOE 2 2';
    'BALLINGER 0';
    'SILVER 0';
    'SILVER 1';
    'SILVER 2';
    'SILVER 3';
    'SILVER 4';
    'ROSCOE 5 0';
    'ROSCOE 5 1';
    'ROSCOE 5 2';
    'ANSON 0';
    'DEL RIO 0';
    'DEL RIO 1';
    'HUNT 0';
    'WINGATE 0';
    'WINGATE 1';
    'WINGATE 2';
    'WINGATE 3';
    'WINGATE 4';
    'STERLING C~1';
    'STERLING C~2';
    'STERLING C~3';
    'STERLING C~4';
    'STERLING C~5';
    'STERLING C~6';
    'ROSCOE 4 0';
    'ROSCOE 4 1';
    'BRADY 0';
    'TRENT 1 0';
    'TRENT 1 1';
    'OVALO 0';
    'NOLAN 0';
    'NOLAN 1';
    'MILES 0';
    'BRACKETTVI~3';
    'BRACKETTVI~4';
    'MASON 0';
    'BRACKETTVI~5';
    'ABILENE 6 0';
    'HERMLEIGH 0';
    'HERMLEIGH 1';
    'HERMLEIGH 2';
    'HERMLEIGH 3';
    'MERKEL 1 0';
    'MERKEL 1 1';
    'MERKEL 1 2';
    'LORAINE 1 0';
    'LORAINE 1 1';
    'LORAINE 1 2';
    'ABILENE 1 0';
    'ABILENE 1 1';
    'ABILENE 1 2';
    'ABILENE 1 3';
    'ABILENE 1 4';
    'ROCKSPRING~1';
    'MERKEL 2 0';
    'MERKEL 2 1';
    'FLUVANNA 2 0';
    'FLUVANNA 2 1';
    'FLUVANNA 2 2';
    'DYESS AFB 0';
    'HAWLEY 0';
    'BUCHANAN D~4';
    'ABILENE 3 0';
    'SWEETWATER~6';
    'BUCHANAN D~1';
    'BUCHANAN D~2';
    'BUCHANAN D~3';
    'INGRAM 0';
    'KEMPNER 0';
    'FLUVANNA 1 0';
    'FLUVANNA 1 1';
    'STERLING C~7';
    'STERLING C~8';
    'STERLING C~9';
    'SAN ANGELO~2';
    'ROTAN 0';
    'SYNDER 0';
    'SYNDER 1';
    'SYNDER 2';
    'BRACKETTVI~1';
    'BRACKETTVI~2';
    'ROSCOE 1 0';
    'ROSCOE 1 1';
    'UVALDE 0';
    'FREDERICKS~1';
    'ABILENE 5 0';
    'SABINAL 0';
    'SWEETWATER~2';
    'LORAINE 2 0';
    'ROSCOE 3 0';
    'SAN ANGELO~3';
    'TUSOCOLA 0';
    'EDEN 0';
    'SNYDER 2 0';
    'SNYDER 2 1';
    'SNYDER 2 2';
    'SNYDER 2 3';
    'SWEETWATER~1';
    'MENARD 0';
    'WINTERS 0';
    'GOLDSBORO 0';
    'SWEETWATER~3';
    'GOODFELLOW~1';
    'SANTA ANNA 0';
    'ROWENA 0';
    'TRENT 2 0';
    'JUNCTION 0';
    'LAMPASAS 0';
    'LAUGHLIN A~1';
    'EDINBURG 3 0';
    'LAREDO 7 0';
    'LAREDO 7 1';
    'BRUNI 2 0';
    'MCALLEN 2 0';
    'POTEET 0';
    'SARITA 3 0';
    'SARITA 3 1';
    'HEBBRONVIL~1';
    'PROGRESO 0';
    'EDINBURG 2 0';
    'EAGLE PASS 0';
    'EAGLE PASS 1';
    'CHARLOTTE 0';
    'CORPUS CH~24';
    'WOODSBORO 0';
    'MERCEDES 0';
    'CORPUS CH~13';
    'EDCOUCH 0';
    'ENCINAL 0';
    'MOORE 0';
    'CHRISTINE 0';
    'CHRISTINE 1';
    'CHRISTINE 2';
    'MCALLEN 3 0';
    'FANNIN 0';
    'FANNIN 1';
    'FANNIN 2';
    'SAN YGNACI~1';
    'KINGSVILLE 0';
    'LAREDO 6 0';
    'HIDALGO 0';
    'CORPUS CH~15';
    'CRYSTAL CI~1';
    'SINTON 0';
    'BEEVILLE 0';
    'MISSION 4 0';
    'MISSION 4 1';
    'SAN JUAN 0';
    'SAN JUAN 1';
    'FALCON HEI~5';
    'FALCON HEI~1';
    'FALCON HEI~2';
    'FALCON HEI~3';
    'FALCON HEI~4';
    'LA JOYA 0';
    'SEBASTIAN ~2';
    'SEBASTIAN ~3';
    'BISHOP 0';
    'BISHOP 1';
    'ARMSTRONG ~4';
    'SKIDMORE 0';
    'CORPUS CH~29';
    'GREGORY 0';
    'GREGORY 1';
    'GREGORY 2';
    'GREGORY 3';
    'GREGORY 4';
    'GREGORY 5';
    'GREGORY 6';
    'GREGORY 7';
    'CORPUS CH~16';
    'CORPUS CH~17';
    'WESLACO 0';
    'HARLINGEN ~1';
    'ELSA 0';
    'CORPUS CH~14';
    'BROWNSVILL~3';
    'BROWNSVILL~4';
    'CORPUS CHR~7';
    'MISSION 1 0';
    'MISSION 1 1';
    'MISSION 1 2';
    'MISSION 1 3';
    'MISSION 1 4';
...